**************************************
*      Model Generated by MODPEX     *
*Copyright(c) Symmetry Design Systems*
*         All Rights Reserved        *
*    UNPUBLISHED LICENSED SOFTWARE   *
*   Contains Proprietary Information *
*      Which is The Property of      *
*     SYMMETRY OR ITS LICENSORS      *
*Commercial Use or Resale Restricted *
*   by Symmetry License Agreement    *
**************************************
* Model generated on Jan 17, 12
* MODEL FORMAT: PSpice
.MODEL 2n5550 npn
+IS=2.0224e-13 BF=244.645 NF=1.10004 VAF=226.045
+IKF=0.00672562 ISE=3.77781e-09 NE=3.82644 BR=24.4645
+NR=1.5 VAR=52.5701 IKR=0.0672562 ISC=1.74978e-14
+NC=1 RB=2.43982 IRB=0.1 RBM=0.102669
+RE=0.215028 RC=1.07514 XTB=0.603834 XTI=4
+EG=1.08787 CJE=1.67169e-11 VJE=0.99 MJE=0.258722
+TF=4.60207e-10 XTF=0.818874 VTF=8.82706 ITF=0.0104657
+CJC=6.97553e-12 VJC=0.539546 MJC=0.325708 XCJC=0.9
+FC=0.487522 CJS=0 VJS=0.75 MJS=0.5
+TR=9.57121e-06 PTF=0 KF=0 AF=1


