.model BD911 NPN(IS=2.53133E-13 BF=886.474 NF=0.85 VAF=86.5699 IKF=1 ISE=3.83814E-10 NE=1.64879 BR=0.1 NR=1.02906 VAR=1.23433 IKR=10 ISC=2.5002E-13 NC=3.99999 RB=0.74113 IRB=0.1 RBM=0.74113 RE=0.0136941 RC=0.0684703 CJE=9.84329E-09 VJE=0.701902 MJE=0.85 TF=9.08724E-10 XTF=2000 VTF=0.547983 ITF=0.0242429 CJC=2.39469E-10 VJC=0.4 MJC=0.402994 XCJC=0.1 TR=1E-07 CJS=0 VJS=0.75 MJS=0.5 XTB=0.418994 EG=1.206 XTI=1 FC=0.8)
