**$ENCRYPTED_LIB
**$INTERFACE
*$
* TPS43061
*****************************************************************************
* (C) Copyright 2012 Texas Instruments Incorporated. All rights reserved.
*****************************************************************************
** This model is designed as an aid for customers of Texas Instruments.
** TI and its licensors and suppliers make no warranties, either expressed
** or implied, with respect to this model, including the warranties of
** merchantability or fitness for a particular purpose.  The model is
** provided solely on an "as is" basis.  The entire risk as to its quality
** and performance is with the customer
*****************************************************************************
*
* This model is subject to change without notice. Texas Instruments
* Incorporated is not responsible for updating this model.
*
*****************************************************************************
*
** Released by: WEBENCH Design Center, Texas Instruments Inc.
* Part: TPS43061
* Date: 16NOV2012
* Model Type: TRANSIENT
* Simulator: PSPICE
* Simulator Version: 16.2.0.p001
* EVM Order Number: TPS43061EVM-198
* EVM Users Guide: SLVU799November 2012
* Datasheet:
*
* Model Version: Final 1.00
*
*****************************************************************************
*
* Updates:
*
* Final 1.00
* Release to Web.
*
*****************************************************************************
.SUBCKT TPS43061 AGND BOOT COMP EN FB HDRV ISNSN ISNSP LDRV PGND PGOOD
+  PWPD RT_CLK SS SW VCC VIN
$CDNENCSTART
eee8c5c7a2bc4b01f045f303678664e7916da0bae22e8cb0bba041dd67c69ce448ea70148a9ac1670c8926c1ac5057c8ccfcd77bf87ca9dc5a97c8100a7f5192
d054e2d619e668b0706b807646b8037111a8cc64594721807208a85e1aefd30a28587c3a3bc825ce6c6ea971a8291dc76d35d8485846d699639f94b9d14c856a
8f10d309634521e584ae83d57dff2f3582664b04e041863e87b23b8c84a6a67193f17a07f07e954462d766f77596a54b62d6bdea024861df2dd112e4aa362c02
4c365d6473e6054edffda43ce0898750e6479d7d90cea5baf7869ff373847bc78cb450af0c5bc3638b74cc8cf438b701ea09ec4bf584f8dd55869a830df61378
43ff6483192848a26ed53bec7629a4ee165f03a27a1c01fda861090bf3d2be123981d53a6babaa9d3e1786f82095c8a80d71fdea37a778c936361ab795405919
72667800f813325b8dc6150e9752de3228faf8f7a7d9bcd46199f54aea510d32042f0c0c78bb0deb80fa21721bf3358ca6de71685bf58c903a5dc079a48bd340
f197831ab997cb514597b28a3abd988006c017fb2dfda84036806a8e381bf9a0f04163af94c95a1d0d3a4073c77cf923dc361e602ca60976ef88b43b2e5ecd8a
2e781867abaac5ce1b1301b16df2da05faa3bfc3f14b9bf72c6ae38325f3cd1495d7fcca0b5012ccddf7ad811d6a72c40790ffaf43e25844c4d2097fcab0f49a
2a0dde369b0e03c99162629e90ad3cc673c476259599c8a2278e9f5a89a1ebd0e6b9af996147aa3a589af0812576e61b8318958aa75d4556dd0a70f33e2447ea
4e2689494256295447158635b18b6659ddf7ad811d6a72c40790ffaf43e25844402a22a00a175fe32fb8e6d82984fc1fa3e5af8a9f0d59f62c8b4f8e886a69cc
4b6085f2012636675a0aa31c52cddba976617f42cd5d956bf04163af94c95a1d0d3a4073c77cf923dc361e602ca609762950f096084b66b86110972015b4a108
0abb8c42c110d7c51b1301b16df2da051bd7398fd809e6af7e65a63997096a06b032015482838020ed857e222a29377b14aee5f82b16b767a53ed4fb58cd5d2b
b0eb42ca922cce59957673035b26e32b2b09d92971e6b7cb6b574213c15e8d89ac5c5dce90c85ba094d295cf8c59dd93473ed35e3f7ec207484379fba1bca2d2
839f52f447781cab957673035b26e32b47d12a5db9c4d228b4bdd1cfb4233b5d62d6bdea024861df71a419df3b9cd2e10f73aa04b9c40a615ba3ed11d2389294
1e48f80b52cf52581b335ff666912215bd7da830577a40ef1669cf8f0d8f3aa7a873c24146caa13062d6bdea024861df71a419df3b9cd2e17eb34759a160c424
12501895e3f794d935f1882e72da9beadbee2d5133d50126644126c9831a96bdf04163af94c95a1d0d3a4073c77cf923dc361e602ca60976ef88b43b2e5ecd8a
30676e270d7ba14a706b807646b803713c9e038de2490d8707de7db09dabb15462d766f77596a54b62d6bdea024861df71a419df3b9cd2e17eb34759a160c424
b7590adcd9a719c7706b807646b80371467c0f6bb0e0e7b031979312a705a3fd24fdfd9bb2e10b078b74cc8cf438b701ea09ec4bf584f8dd55869a830df61378
05146cce2cf93785706b807646b80371c8a933387fb49850ce5ec34e6f8ad1caa5c7c477755fcc9fc0f76534759190ec62d6bdea024861df2dd112e4aa362c02
d9483d90ab4782c2706b807646b80371db78d293143019c49c01dbfd0824bb5b0f090d5b57717962f04163af94c95a1d0d3a4073c77cf9236dc1cba06b961a0c
058bb1d89a84fbf2599bf13f0371d5b42f6ec944424fd010b383949ebd282b37d867a613a0ac2f2b808060ee1504316b5c225826a7752d39aad05fa23ba8b925
6cb87226f48588e51517416927dee8b5ed857e222a29377b14aee5f82b16b7673d4db86b42817e2b94029deb845b63dbc002d19ceb77a0227332f86ebd489748
179628ee4ab541e880fa21721bf3358ca6de71685bf58c900983ad7c94dcefbd14f1317035ef08efdd67fe2727128158dfa6f6cc90f11a81e844a0bbad8ee659


321c3c0759fb4eb5d6d834f9dcfeac7f29561195cb9a119e2254ae57d4263ab72b3adeaa6c68cb8f8b74cc8cf438b701ea09ec4bf584f8dd55869a830df61378
cf260434b9fe12d7706b807646b80371d77001da2bc4ca368492e52ca9907137f9c6ec67082297a00a8cd5950fa7dc893bd627e23244ba5aedfe5c5e91bb342b
317f1bcb1e5ac86291424fe002279da2e1f81912383a31cbf90f7b4f517a06198b74cc8cf438b701ea09ec4bf584f8dd281b4bcb2fc65398f317f2de0bd9ffbe
3b59b36ad64eb58684ae83d57dff2f35a29a80d0fe06482e40aa9f133ccab2462c9ec703c9415b5823b782b3d6a37df173bf76c56446ed39a9a3702383776c53
4c365d6473e6054edffda43ce089875064a66fc0e9ae2280f7869ff373847bc78cb450af0c5bc3638b74cc8cf438b701ea09ec4bf584f8dd55869a830df61378
5654d587323d23334a258ad5c6bf4d8a14adece2b524f14cb045613ae43fceace55f5dd8489964f09144f989a85a7e43e384da5d9142d12f2bb0da26e91d20fe
0382627c5bd012d47c3f8de1aca77c883928c3dca9f1370a8c8f7499dfa8f4666606fc3d054efc30c932ea0c66ec2af3a54f0dc4d276ad71b1d22c0c873c0243
1fe70252511a4ce384ae83d57dff2f35b76bbc730b63b4d5bf2c96cea7de6c282cb64a4969cdda32fb39caa823c4ddd76c5cc2503c779cfc5a97c8100a7f5192
66daf9ac6645d3517674bbc8caf0d23de75f53db00dde808838ebe4bcd51da52b34875ad9cf2b042ff7f31d0b5a472a115cde71e5a76569b7928b765497cc849
fe65365436fca01f3fdbae5376dcab6473bf76c56446ed39c27a29c2d535fd4ea444f95e85eea421e624fc2223ab3920736773acebe3f8d53d23d74009f155f7


5637fcfd860683a9151d9c1419fbf08c7424dd593a343de298f2a95215ae9929693f1203bcc6f135c1cb60b9845d858e24fdfd9bb2e10b072bb0da26e91d20fe
4c365d6473e6054edffda43ce08987500e80a324ba9c4e96f7869ff373847bc78cb450af0c5bc3638b74cc8cf438b701ea09ec4bf584f8dd55869a830df61378
4036fe3bb1fccadc151d9c1419fbf08c231ebdeaf0796e4798f2a95215ae9929e8fa70b596afca3f73d9dc50e4e85c45710f626c2faf14a65a97c8100a7f5192
4c365d6473e6054edffda43ce0898750ca391afb5450e0c0f7869ff373847bc78cb450af0c5bc3638b74cc8cf438b701ea09ec4bf584f8dd55869a830df61378
2b715364f7d753008dc6150e9752de32af4d796fcbdaa7cbe8c173397f4e2d2624fdfd9bb2e10b078b74cc8cf438b701ea09ec4bf584f8dd55869a830df61378
f204860dd3f51380187ea8b1eb3df8de340227790021ef27cea3eb0a2aa7580b5b11621f146daea49a87dce6f28c1cabf04163af94c95a1d58ccff48e3f0f30e
e83d563d614d5ce9d9423b0c849c4a112c3969495f417169b2b0bff6184c43bb24fdfd9bb2e10b078b74cc8cf438b701ea09ec4bf584f8dd55869a830df61378
4c365d6473e6054edffda43ce08987503e89331ace5a355fe2ba4357ad2ad1ff421e1c7e544985036915eb505e8a3b3c33ef52353febd1f220ba217fa27494f5
dbf12f0360092c452fbfcc2b872ff9469e7bf4b828732421ce5ec34e6f8ad1ca5474438ac943e6131652ae74efd59cd45f95a3a83bea06c17612c3486b09b792
7fed2d0d27283289aa33655883cb978b62d6bdea024861df71a419df3b9cd2e10f73aa04b9c40a61ee80317e3f8c42a92e2a580c88a20b5872426f8a8ef40a28
b0fb847a3b385fda4597b28a3abd9880fad9ff17a7e9e9d18d0d7d270fe4b7fb6915eb505e8a3b3c33ef52353febd1f2ca9826ced64f37cbd946b25c2e2c9cf6
b5b551b85673a6bf1b335ff66691221580386cdd3d923a79e8be9181063e91e8cbdebe7801a4e11c41097083f6b3a20980fa21721bf3358cc4169e4a88b5de56
185f27182c5efd10706b807646b80371e76feeb7af3e1b8881a3e6b939a81c4662d766f77596a54b62d6bdea024861df71a419df3b9cd2e17eb34759a160c424
fb1973f283b31bee1b335ff66691221586bdb72f62ea8253677f096f61182f825b11621f146daea49a87dce6f28c1cabf04163af94c95a1d58ccff48e3f0f30e
b64204e7ebac0712c795ec720c2d595e50ba0ae53836ad4c433f2bd729ed5013fbf2872229531c664e462521a6307870a873c24146caa130d7acbf21c6552dd3
4341f824ecf3e2e7706b807646b803719cc4cbb4e93a31fd15b3801d259abfb262d766f77596a54b62d6bdea024861df71a419df3b9cd2e17eb34759a160c424
3e9e5fdcd7dc3d562fbfcc2b872ff94623b96ab753229baa66eaeb9fc4cc8ae16df18951c6eb0f8c474e02c7e8ca851622c8b4d26042e06fd38aff4e12555a5d
256325030bdc7d1e47b82bca135bf5828492e52ca9907137a01a192330666f11f87842ad7aa86c56873aa2fbfbf2d549cb137d57ebc4d10d363b1c9542a67e4a
f18a314737ce6ce36bc5fd38a12d1542ed857e222a29377b14aee5f82b16b7673d4db86b42817e2b94029deb845b63dbc002d19ceb77a0227332f86ebd489748


37043a5e33a732b7706b807646b803712e6cec33642d53d10e092ff8d6ec2acbf618abeb8f40b31e710f626c2faf14a66915eb505e8a3b3cfb12c08ee2c37ec0
81bc0cb7c12452441b335ff66691221579e7cd5b00fd645d80d2503a02fcc0716594e2ecfdcb7f1462d6bdea024861df71a419df3b9cd2e17eb34759a160c424
9c3e801b31a04ffe91b0081b127307748415e6c6ba0b32ea6f7fdeb475b80b83077c6957e7dc3aef81951cd64af196171b1caf45b4582faf835b0555b6560412
c3ec163127075deb8dc6150e9752de32c3d5273f1be78e36efea518d467d4be9d37750f413b01fab710f626c2faf14a66915eb505e8a3b3cfb12c08ee2c37ec0
4c365d6473e6054edffda43ce0898750efe11958caf1ca6f8ae76724e38b444f05d79bc20191df12ddf7ad811d6a72c40790ffaf43e25844c4d2097fcab0f49a
9445347659ec35d3cb3707fed16c224b5a72c2fc6ce7ca51b9a86814d27e1dbd49a56046135d903ded857e222a29377b14aee5f82b16b767a53ed4fb58cd5d2b
2a76c18f665e8c27be48ce030deefa11ac39e24e6f374294bc41eaf9972019a5aad0cae5ebf3019af04163af94c95a1d0d3a4073c77cf9236dc1cba06b961a0c
0d6a11857a3f7d01f45310c19b6b8ee57e922aa7cbb4b67df88022cc605675ca16767de4da028f5080fa21721bf3358ca6de71685bf58c903a5dc079a48bd340
591d285dfa78c2c64a258ad5c6bf4d8a14adece2b524f14ccb2c584d03eb1e4ca19621dd4ca4acc3c5b57b2266955e82b1d1ca9e44b405a3d7acbf21c6552dd3
8d21fa536185c85c2fbfcc2b872ff9469852c54dc3526c8466eaeb9fc4cc8ae13965adf9533891ac12e89ae99d7349e6aa33655883cb978bd7acbf21c6552dd3
b052355e65d40bda816eb72006c492316867e3e9855280902734814e87d49d0547d9b1cb5fe5d5620fdae27d0c0a851e62d6bdea024861df2dd112e4aa362c02
574f879f1d53d614574ea86a944eba7598f2a95215ae99292652108375a53184fa460eccc75cda6db91f6756c247f62c8b74cc8cf438b7017b9407c104a3fa6d
e72ff3e7fc7190cd07f36db863dd4f4cb162c8e2b10d8623e10bc52e6319ceb0eb9867248335cf44a89afd90dd683fc580fa21721bf3358cc4169e4a88b5de56
d733558f17ca8d9e495b5eae431ecbdcf1e0227cbf3cb102b2bcd6a8bcf625fb13ac6b6121d845c280fa21721bf3358ca6de71685bf58c903a5dc079a48bd340
29fe754104d04f4b706b807646b80371dffa4dce4124f491ce5ec34e6f8ad1ca58ab0039eaebe0d41719d5fa7a267b01ed857e222a29377b9380942fd2fefa16
1f59022967e7ca7b7d49e5986a6ba981d4e4d21d061c186c386b14e28fdab25e12aa4361a7de9e97ed857e222a29377b14aee5f82b16b767a53ed4fb58cd5d2b
f594d35fefcc7e2c957673035b26e32b87fe8fb58ba81becb1ca17ffbc42d04873e5642e593a354624fdfd9bb2e10b078b74cc8cf438b7017b9407c104a3fa6d
4c365d6473e6054edffda43ce0898750e339dfcde8e62f5a8ae76724e38b444f05d79bc20191df12ddf7ad811d6a72c40790ffaf43e25844c4d2097fcab0f49a
3e91d6456c4b63fe706b807646b8037114514c740318c25d2a0eb162ae8d3b98d3b99b01fef3c644a1637079f3d8c51da6b0ac42922a13358ddef45e1d872303
301e882fc7560399ac73e51ea6171029fda4c219b91f031d9d72f8b6ced4c8ae02ad93d405ca8e11ddf7ad811d6a72c40790ffaf43e25844c4d2097fcab0f49a
658c017bfd47a4cc4597b28a3abd98801d5b620fae8878202c6ae38325f3cd1495d7fcca0b5012ccddf7ad811d6a72c40790ffaf43e25844c4d2097fcab0f49a
0360226f8a32fa74e86edc7bbfeb838577292c5f5dee124a212d80903e2d1eaf983b864fed4441a322cff34100050377644126c9831a96bdcad25bf5db12395b
9282ece07efe1537706b807646b803714a213092fd6dee37d960498bee9a6c6c0f090d5b57717962f04163af94c95a1d0d3a4073c77cf9236dc1cba06b961a0c
0fb8138f881bff56706b807646b803717920b9bf903b1b8f118702c88c12390cf418006d7903bf690fa984f27f78bccf9559e1922263399acede045e7c1e1489
3e10a24a415fea9ce027e85c8d068b7373bf76c56446ed39c27a29c2d535fd4ea444f95e85eea421e624fc2223ab3920736773acebe3f8d53d23d74009f155f7
0b00c72b7c2c95cdbe48ce030deefa1195a4122027aef8775a72c2fc6ce7ca5162d7fc06aea0b62b8b74cc8cf438b701ea09ec4bf584f8dd55869a830df61378
40ff64b82c572c491aabf11df8bc7d16a1b1eef61449999d8db3ce69c39e6b3543fe2b9debb21178710f626c2faf14a66915eb505e8a3b3cfb12c08ee2c37ec0
4c365d6473e6054edffda43ce089875051095b885b871a6ef7869ff373847bc78cb450af0c5bc3638b74cc8cf438b701ea09ec4bf584f8dd55869a830df61378
a64864cc6ffd637e706b807646b80371610a12217808127f8492e52ca990713707f6b895777902ae82bbfe204ac7c45ee06588b1bf03b89956e2c719886af7e5
014d26bcd4776fef2576175eff3c1c5aed857e222a29377b14aee5f82b16b7673d4db86b42817e2b94029deb845b63dbc002d19ceb77a0227332f86ebd489748
3e2f6d3b6fa1f79eddf7ad811d6a72c40790ffaf43e25844402a22a00a175fe32fb8e6d82984fc1fa3e5af8a9f0d59f63eae6688a631421ee638e7ebcc38d9c4
98b5f0d56fa74586ff1904a7559527c44088a280f80d76dbe10bc52e6319ceb0eb9867248335cf4403a0a7a9237c721380fa21721bf3358cc4169e4a88b5de56
904e90e8e5b2fbfd6ed53bec7629a4ee9cfc4c56529bed119c07274ec8bcb646bafe5040957ee65200d3e0b087c73744ddf7ad811d6a72c444eb3bb0fc4b8a93
4c365d6473e6054edffda43ce0898750daa3a5fb54d4bd36f7869ff373847bc78cb450af0c5bc3638b74cc8cf438b701ea09ec4bf584f8dd55869a830df61378
705d459f50f7a08c74114ea99abc715d27be477dbb8da91ab2b0bff6184c43bb24fdfd9bb2e10b078b74cc8cf438b701ea09ec4bf584f8dd55869a830df61378
4c365d6473e6054edffda43ce0898750101374417322435ae2ba4357ad2ad1ff421e1c7e544985036915eb505e8a3b3c33ef52353febd1f220ba217fa27494f5
f637050c6a74cba91b335ff66691221525c511fa5b7513e4138e8d6c9f2df4fc5b11621f146daea49a87dce6f28c1cabf04163af94c95a1d58ccff48e3f0f30e
d5bfd4b79d522d842264a892bdef1efb5d6b58707f577c2f564e1d545515f2e7e9bb8d0e68f5bd5427d9f7e5287cba2c8b74cc8cf438b7017b9407c104a3fa6d
1bd33e665e4e572c6f52d5ca6e23dacf6817b7f0719023cb236e3e8cea9b212773bf76c56446ed39c27a29c2d535fd4ea444f95e85eea42155a6f3f1d348a0ee
abea470061b4cf46495b5eae431ecbdc58207c66a33837180c7b81617ab1e55c2c0fb8a341161179393137f5084e3fa3de4dcf69224b8239ffa02094b80f6ed9
13ac6b6121d845c280fa21721bf3358ca6de71685bf58c900983ad7c94dcefbd14f1317035ef08efdd67fe2727128158dfa6f6cc90f11a81e844a0bbad8ee659
e5e7bd6b4f7f9068706b807646b8037114adece2b524f14c77292c5f5dee124ac1f125687736342ba1d82ae3fd5f9acd00d3e0b087c73744ee626c3c1261d425
4c365d6473e6054edffda43ce08987502d26e210df7c474720b9dfbe3fbec68f96ca58988d555fde73bf76c56446ed39c27a29c2d535fd4e755b4380fba48b25
59b6ff1c3134b7b51b335ff66691221599a43b8c436cd60d1669cf8f0d8f3aa7a873c24146caa13062d6bdea024861df71a419df3b9cd2e17eb34759a160c424
a22368c484c0be964dec8ad8abd02e9ac1ba77751c81dde0621a54c5698de6ff6969392d5106f0b6a873c24146caa13062d6bdea024861df2dd112e4aa362c02
8807bf206d8a4bf4989c46c74adb5cad9f1fc78125657435a1a90a46f84c8759d16325780afa1b94561ba1e1ffea0410ddf7ad811d6a72c444eb3bb0fc4b8a93
148352bd2f3f1ce3706b807646b8037182218258cca88ffbe7cd59b7f0cb18ab23b782b3d6a37df173bf76c56446ed39c27a29c2d535fd4e755b4380fba48b25
8f03dc1d8e018658706b807646b803713ec4349400ec3ee8bd7aac0ae98026628decd1c0ea343a9d6915eb505e8a3b3c33ef52353febd1f220ba217fa27494f5
615a28c46d723740bfa54417c4852a036b2e0f7f05f8b6bd55d11f1f786b4406c1cb60b9845d858e24fdfd9bb2e10b078b74cc8cf438b7017b9407c104a3fa6d
4c365d6473e6054edffda43ce08987502bcf036f59aac0c2e2ba4357ad2ad1ff421e1c7e544985036915eb505e8a3b3c33ef52353febd1f220ba217fa27494f5
94fab6a88c3a1cac74c94f93c383e2571b04712bd5273d12a6908a9fb62203c1042f0c0c78bb0deb80fa21721bf3358ca6de71685bf58c903a5dc079a48bd340
4c365d6473e6054edffda43ce0898750035b8ba07ab513f4f7869ff373847bc78cb450af0c5bc3638b74cc8cf438b701ea09ec4bf584f8dd55869a830df61378
94a8023747cab2d9574ea86a944eba7598f2a95215ae9929957be3e376c070904f83950d47b140429c43c24eda4802f7b91f6756c247f62c2bb0da26e91d20fe
abc05a84349f7fe5ac73e51ea6171029fc7da5e9b05a98dbf92a0d9db0bddf19de30493e580a79e6042f0c0c78bb0deb80fa21721bf3358cc4169e4a88b5de56
4c365d6473e6054edffda43ce0898750f8ef2e5cbb06a051e2ba4357ad2ad1ff421e1c7e544985036915eb505e8a3b3c33ef52353febd1f220ba217fa27494f5
29db0aba6a9e07889551525a7e855e35fee08ee390897965248b8b2b35a0b6c22b3adeaa6c68cb8f8b74cc8cf438b701ea09ec4bf584f8dd55869a830df61378
3a31950943f8893e0d0fb41c7f68fd4a1d58caf5355464b56a39eeb6c8f7f3190c7b81617ab1e55cba83e9c74d3a8b7413ac6b6121d845c297636cf94a1578d2
86ad213343ec82a915f60e4ce62d5ce438149ae71d4327b6125916b3dee8ea6e87938bd13c84f8ef042f0c0c78bb0deb80fa21721bf3358cc4169e4a88b5de56
4c365d6473e6054edffda43ce08987501403a0a2c157bd53e2ba4357ad2ad1ff421e1c7e544985036915eb505e8a3b3c33ef52353febd1f220ba217fa27494f5
1154b5c62790e4722fbfcc2b872ff946b67288f3b0fc30c466eaeb9fc4cc8ae13965adf9533891ac12e89ae99d7349e6aa33655883cb978bd7acbf21c6552dd3
04307dd33841f8905415a1bc588ae6b0449bd2d385565d7f84323401b0599afcd8177ecddd23913c1a23505f6c9c5f8529468a95d6a40ef0a06930635f20c1c3
6c5cc2503c779cfc6915eb505e8a3b3c33ef52353febd1f2ca9826ced64f37cbf69d44061c3450d426dc457f7871e36e7975befcddf1bc8d446e9c238acb2ba0
93d3808648446fd726c880f485e2ca348603798fec049aa28ca9741507fe2e0c00d3e0b087c73744ddf7ad811d6a72c40790ffaf43e25844c4d2097fcab0f49a
4c365d6473e6054edffda43ce089875055b3f34c08a3b98ae2ba4357ad2ad1ff421e1c7e544985036915eb505e8a3b3c33ef52353febd1f220ba217fa27494f5
5009e779fac799694dec8ad8abd02e9a2883a51c3334e3143449b260ad47a4b5b032015482838020ed857e222a29377b14aee5f82b16b767a53ed4fb58cd5d2b
7142cd1bceb4dc02706b807646b8037134cc3b52a32a1679b2747e3cd181c77e62d766f77596a54b62d6bdea024861df71a419df3b9cd2e17eb34759a160c424
48b4f3abbdab15bb84ae83d57dff2f3500d1d3ebb9c0326796adf5209886a673cb251a2541e3da4c6bc7119ad5724a2a0adedcb26650be7073a3cf9ee36d6dda
1b1caf45b4582faf1b3bd44627b0d1a7ddf7ad811d6a72c40790ffaf43e25844402a22a00a175fe32fb8e6d82984fc1fa3e5af8a9f0d59f62c8b4f8e886a69cc
48a94d11d238250fbf139ef5b2461960804b0d8f1855f950a1a90a46f84c8759d16325780afa1b94b270b53054ba30baddf7ad811d6a72c444eb3bb0fc4b8a93
bcd47878fdf46051706b807646b80371ce6505c9fd0ba9d88492e52ca9907137d359fd83916042cd23a80f402716fc46cfaeea42b5578d2f3b300708695416e3
f90824e8f4a0e838706b807646b80371c9790ca48684d169957910123018a02e23b782b3d6a37df173bf76c56446ed39c27a29c2d535fd4e755b4380fba48b25
8bf314ab8c034899089653f7e1eda43bf9ca63bb3c278123e10bc52e6319ceb0eb9867248335cf44f5d7409d10e21b7e80fa21721bf3358cc4169e4a88b5de56
f91e9969b8d0883b706b807646b80371be007a8d2a01b1398492e52ca9907137f9c6ec67082297a00a8cd5950fa7dc893ffc32fb7b3a245c3b300708695416e3
6515a1cdba30a506706b807646b803711a96573e18f7381bce5ec34e6f8ad1ca8b415329d984836da92d840fa8f9cb37ed857e222a29377b9380942fd2fefa16
617df87f684e4830a6aef2f846e94004fab5869b49e3f5e1faca85d0862a74fb7e2359a4a403c099e58fadd48448c8c0b4ced54f6781cbe327ab3855428b727c
6d35d8485846d69973bf76c56446ed39c27a29c2d535fd4ea444f95e85eea421e624fc2223ab3920736773acebe3f8d5f206f4b260aca3e5d0ad1ca54ca84971
b9ed3e04d2a793291b335ff666912215e8fe994e3abed39b33e40e04a931f05f8f22936c7d3b4ad6d3077954e390f95b00d3e0b087c73744ee626c3c1261d425
4c365d6473e6054edffda43ce08987504f64a249ee64d735f7869ff373847bc78cb450af0c5bc3638b74cc8cf438b701ea09ec4bf584f8dd55869a830df61378
240cf6a83072ff1a20dd44f77c99c49687647397121a36fa3edf04c157f5dbc073bf76c56446ed39c27a29c2d535fd4ea444f95e85eea42155a6f3f1d348a0ee
c858d814c56a2bccd617b1ae92083d31c9a6d1d11fa70d2e564e1d545515f2e7e9bb8d0e68f5bd547c6a05e67fd634ee8b74cc8cf438b7017b9407c104a3fa6d
6525da4cfd71409daf1922b60cad7ad5a40b0129de2089fb62d6bdea024861df71a419df3b9cd2e10f73aa04b9c40a61ee80317e3f8c42a96f3b666d9ed3040f
81a9746d786d11d6151d9c1419fbf08ca96da287e296fcafd392b39ab991fc45be65b7c13d451c0d12aa4361a7de9e97b03201548283802070870f25f43711dd
c8ec67115e15a9b2ddf7ad811d6a72c40790ffaf43e25844402a22a00a175fe32fb8e6d82984fc1fa3e5af8a9f0d59f63eae6688a631421ee638e7ebcc38d9c4
09f36a1d8b68f4d8151d9c1419fbf08ce6d075e2ee7e9a255a444ae3de1b9453977aa12e8ea1263dbaa78b47fb353ab3f04163af94c95a1d58ccff48e3f0f30e
c0ff0c48b49f7f3384ae83d57dff2f3528465d875bdfcfd798f2a95215ae9929ae81c35cd84c1fbb49bcb2e9b7241eb4644126c9831a96bdcad25bf5db12395b
4c365d6473e6054edffda43ce0898750dcdf8d7f3c517bc8f7869ff373847bc78cb450af0c5bc3638b74cc8cf438b701ea09ec4bf584f8dd55869a830df61378
b0686e6017586587706b807646b803714aa29e307ae1bf81ce5ec34e6f8ad1caa5c7c477755fcc9f4d65a3db4bba07aaed857e222a29377b9380942fd2fefa16
5ff44a992c4e2ee34597b28a3abd9880c4e73f9938a3cefc7e65a63997096a06b032015482838020ed857e222a29377b14aee5f82b16b767a53ed4fb58cd5d2b
62748d827ca277c7706b807646b80371c83805c2174809e866eaeb9fc4cc8ae10d84fbc6657014080b4a1f9401332bc16d35d8485846d699639f94b9d14c856a
58ab99932615660b1b335ff666912215c05799f034d3e1609bb32ef3089dcfcfdad4b7980b83d60c73bf76c56446ed39c27a29c2d535fd4e755b4380fba48b25
04f5acd939422ec02dce7963c39dbc2ecdbcb8ac08cc1915faca85d0862a74fbceff41e4364046085e09e353ec4d4fa516e3ac88ef572561e84db9cc2173f1ad
8a974bc2a1288303ed857e222a29377b14aee5f82b16b7673d4db86b42817e2b94029deb845b63dbc002d19ceb77a022c9b4089f2aa3283508d19ff419fb587f
0805c9bc4a8c6e82b9d15c5be4e02d4923d50fbd82f4809ad8d46728fbe449b87cc7b74c860f658f67138a307a6c221bb91f6756c247f62c2bb0da26e91d20fe
8c74ba1df3e17c1c706b807646b803718d9d46dab323e282a09546df2e73c22f7236390f27aa280755bd0a8bf739c7dece523d51c4bd91cd2bb0da26e91d20fe
d36d26370afc449b1b1301b16df2da0573d332867f5790aced857e222a29377b14aee5f82b16b7673d4db86b42817e2b94029deb845b63dbfa609432f74b4cf3
394197bedeb77a71d05ee9f4a2babc05a378d1a54122e7f1bde2f9726e2f693dff3863bf4c9cdd7724fdfd9bb2e10b078b74cc8cf438b7017b9407c104a3fa6d
4c365d6473e6054edffda43ce08987508c655ab34a33bf3fe2ba4357ad2ad1ff421e1c7e544985036915eb505e8a3b3c33ef52353febd1f220ba217fa27494f5
0309faec1d3e3fba706b807646b80371da0990a7c75136fd187a22d5c7ce302bfaeaa281e22d723e644126c9831a96bdf04163af94c95a1d58ccff48e3f0f30e
47e2519fa42d321e84ae83d57dff2f3522b88249def5964b96adf5209886a673a027d9bf4111f52d2d3711465512234c9a87dce6f28c1cabcad25bf5db12395b
b9ac294d39eede85187ea8b1eb3df8de4a96d889436bba3ba6db312667ee6b9fa873c24146caa13062d6bdea024861df71a419df3b9cd2e17eb34759a160c424
d8d4f554fe5763de29e825b94f56ec70eaddf1740b36e06fa1b8e96d36cb7a52dad4b7980b83d60c73bf76c56446ed39c27a29c2d535fd4e755b4380fba48b25
53428b3d5fabd5e9706b807646b80371b2a722aeccdc78b9ef444a8a0e181a19f618abeb8f40b31e710f626c2faf14a66915eb505e8a3b3cfb12c08ee2c37ec0
ab826d58a5e292c658e7dc8c8e0923333fe71322b6154693726d9a7f6b37359c1b3bd44627b0d1a7ddf7ad811d6a72c40790ffaf43e25844c4d2097fcab0f49a
30121bf0e4b6f88026c880f485e2ca34c7ae5a91fde77d89e5ff990aaf2cc607ed857e222a29377b14aee5f82b16b7673d4db86b42817e2bf411d12d7ec6c2f4
c9df73872fc60450fe4e3ad5ef653a2c64cb1cfefb6e4006017f6156319502eb86dfd129f9d4d35e826d63767c184704644126c9831a96bdcad25bf5db12395b
19783a1fc48c2a0c78ffbc956a033e59506f70b030c78a07019b8717068e3d44e10bc52e6319ceb0eb9867248335cf444b1ed20257b6422a639f94b9d14c856a
f80a395284a571112fbfcc2b872ff94650d47cfb7ccb7fdb66eaeb9fc4cc8ae13965adf9533891ac030135283f2f4fe7b0655b7297d2cc5b1aabfa10941d45cf
f9705fba3e9419e84a749c3c8ff77c97ecd04b518e08577bf6b416f84d54d658844da759261db9866915eb505e8a3b3c33ef52353febd1f220ba217fa27494f5
e080b6f7611af9f11b335ff666912215eddb52431de15019a00c9e422d3f61ec8a839d41e6673fceb58626e19d95465c3b2051e815b1bd147a800e49a4c57238
c2c5719688b9adbb62d6bdea024861df71a419df3b9cd2e10f73aa04b9c40a61ee80317e3f8c42a92e2a580c88a20b581739c5c1ab2d23f214b807900fe3ac5c
099a86bb88e9bfe3495b5eae431ecbdce1e890e7986dcba2d18e72a97ccdabb1fb39caa823c4ddd76c5cc2503c779cfc6915eb505e8a3b3cfb12c08ee2c37ec0
e9dd452c4e6cfebe969deb1afc4fde25764eb50ebf3f76adf79ed346fe02bf5df04163af94c95a1d0d3a4073c77cf923dc361e602ca60976ef88b43b2e5ecd8a
fe9073afece57ff8706b807646b803718ea1fd7daa70489b8492e52ca9907137f9c6ec67082297a00a8cd5950fa7dc899542b05b8572c0993b300708695416e3
a2bf575280f8d8aaf45310c19b6b8ee5e8be9181063e91e8d565d3fae6b810699c43c24eda4802f7b91f6756c247f62c8b74cc8cf438b7017b9407c104a3fa6d
4559754b57dd997c42267015cdc870b232b6d9b65cadb3c02c6ae38325f3cd1495d7fcca0b5012ccddf7ad811d6a72c40790ffaf43e25844c4d2097fcab0f49a
efaf3b99682e31791b335ff666912215fb6f1944dc560567825288324a0dbaed1c64e4fae4013ac4e41f235217d54a8da5dd93e2580e537f639f94b9d14c856a
52ba738fba12eb4af959dbdbcb8ecc1be7c9776c786c195880fa21721bf3358ca6de71685bf58c900983ad7c94dcefbd14f1317035ef08ef8e5128bbe27bfd2c
a61e1bc8f3d9b1db26c880f485e2ca34c337c4bc72c91cb47870b400afe279c562d6bdea024861df71a419df3b9cd2e10f73aa04b9c40a615ba3ed11d2389294
881857014bf756d4706b807646b8037187e4345caa5828648492e52ca99071370f644d38cd9290e17582c6bfc3c5e874fe5fca639a680f688ddef45e1d872303
e6573f93da02bfe7b66f5818b430d8dcd3f5f1cb4e78ae962c6ae38325f3cd1495d7fcca0b5012ccddf7ad811d6a72c40790ffaf43e25844c4d2097fcab0f49a
2215305de2bb21fe151d9c1419fbf08c255a9f07e5655ff27d4e8ec01023cbc998f2a95215ae9929589af0812576e61b1b3bd44627b0d1a7ee626c3c1261d425
846dad09021724e51b335ff666912215af4c491e4418dbeaa0c624c3e799bda573bf76c56446ed39c27a29c2d535fd4ea444f95e85eea42155a6f3f1d348a0ee
a9174ed1bf108f9a4f83950d47b14042446e981d06afb3c5ab9e97ff8c1f9167e55f5dd8489964f09144f989a85a7e43c612182fe29e690d5a97c8100a7f5192
96a13383adcb4a430d0fb41c7f68fd4a82c3f834928beb5e553d7b0be28304d5726d9a7f6b37359c1b3bd44627b0d1a7ddf7ad811d6a72c444eb3bb0fc4b8a93
0e93a9674d9c6bf6706b807646b8037152640ce34dd7f4088492e52ca9907137a01a192330666f11e7349691d690240f72a4cd21040a3877ea3882c684659db1
224fe9df4b4ef4f2b9d15c5be4e02d49b25b708b842430b7726d9a7f6b37359c1b3bd44627b0d1a7ddf7ad811d6a72c40790ffaf43e25844c4d2097fcab0f49a
1333f3c86417d3f201e07779432d240b7be5161367a34e4c6b574213c15e8d895f22b35d16ee0ba8b3715af44a0e252df44496155f03ed4fd7acbf21c6552dd3
$CDNENCFINISH
.ENDS TPS43061
*$
.subckt TPS43061_TOPLEVEL_S10 1 2 3 4
$CDNENCSTART
eee8c5c7a2bc4b01f045f303678664e7916da0bae22e8cb0bba041dd67c69ce448ea70148a9ac1670c8926c1ac5057c8ccfcd77bf87ca9dc5a97c8100a7f5192
2c5ce0287ce5ddeb46b92e86e8aaa0ba77968c367c5eb47975ba0c3b03da98f26915eb505e8a3b3c33ef52353febd1f2ca9826ced64f37cbd946b25c2e2c9cf6
39deafbe7a97ca4d1852d2bae25628728884162488a3797780fa21721bf3358ca6de71685bf58c900983ad7c94dcefbd14f1317035ef08ef8e5128bbe27bfd2c
1e7e75f62a07f7b1bbcb463bf6330e44495a9bb7954552cde75adc0303e81669422d94caab3a0e7ed9341a119a21aaf1b4a02f072722f4b52cf859073b56ae0f
$CDNENCFINISH
.ends TPS43061_TOPLEVEL_S10
*$
.subckt TPS43061_TOPLEVEL_S11 1 2 3 4
$CDNENCSTART
eee8c5c7a2bc4b01f045f303678664e7916da0bae22e8cb0bba041dd67c69ce448ea70148a9ac1670c8926c1ac5057c8ccfcd77bf87ca9dc5a97c8100a7f5192
e78fee54ef52378d46b92e86e8aaa0ba77968c367c5eb479879f0c9fbb8e40016915eb505e8a3b3c33ef52353febd1f2ca9826ced64f37cbd946b25c2e2c9cf6
699fd6531918f3dc1852d2bae25628728884162488a3797780fa21721bf3358ca6de71685bf58c900983ad7c94dcefbd14f1317035ef08ef8e5128bbe27bfd2c
1e7e75f62a07f7b1bbcb463bf6330e44575ba129fd85412be75adc0303e81669beac70612beb6e179ea5842bf7c428edb4a02f072722f4b52cf859073b56ae0f
$CDNENCFINISH
.ends TPS43061_TOPLEVEL_S11
*$
.subckt TPS43061_TOPLEVEL_S2 1 2 3 4
$CDNENCSTART
eee8c5c7a2bc4b01f045f303678664e7916da0bae22e8cb0bba041dd67c69ce448ea70148a9ac1670c8926c1ac5057c8ccfcd77bf87ca9dc5a97c8100a7f5192
c21144fd15b2c61331820e631d1d1d7423f284e2e346bfb8ed857e222a29377b14aee5f82b16b7673d4db86b42817e2b94029deb845b63dbfa609432f74b4cf3
e07b7a6acd4bf43c6f31076d2b37e96baa35006d782c6ce9ddf7ad811d6a72c40790ffaf43e25844402a22a00a175fe32fb8e6d82984fc1f68b06386d7b2f79a
1e7e75f62a07f7b1bbcb463bf6330e44eff574bcdcb677aa0ffb76e2ddf4497b2b7447af30eda7a9af673fe4a4241386e23b0d90c7c299fe6e2969c0b1ba3f40
$CDNENCFINISH
.ends TPS43061_TOPLEVEL_S2
*$
.subckt TPS43061_TOPLEVEL_S5 1 2 3 4
$CDNENCSTART
eee8c5c7a2bc4b01f045f303678664e7916da0bae22e8cb0bba041dd67c69ce448ea70148a9ac1670c8926c1ac5057c8ccfcd77bf87ca9dc5a97c8100a7f5192
a41eff5afcadbe0431820e631d1d1d74cce714c3daebb9efed857e222a29377b14aee5f82b16b7673d4db86b42817e2b94029deb845b63dbfa609432f74b4cf3
0d00147a4ec8159a6f31076d2b37e96baa35006d782c6ce9ddf7ad811d6a72c40790ffaf43e25844402a22a00a175fe32fb8e6d82984fc1f68b06386d7b2f79a
1e7e75f62a07f7b1bbcb463bf6330e444ffca53f33c7306d0ffb76e2ddf4497b2b7447af30eda7a94581845dadf41c9e1af09922ee8b758c1170ec9fe77f9354
$CDNENCFINISH
.ends TPS43061_TOPLEVEL_S5
*$
.subckt TPS43061_TOPLEVEL_S12 1 2 3 4
$CDNENCSTART
eee8c5c7a2bc4b01f045f303678664e7916da0bae22e8cb0bba041dd67c69ce448ea70148a9ac1670c8926c1ac5057c8ccfcd77bf87ca9dc5a97c8100a7f5192
a2bb1bfa319d55b546b92e86e8aaa0ba77968c367c5eb4792f2bd09e50f291d26915eb505e8a3b3c33ef52353febd1f2ca9826ced64f37cbd946b25c2e2c9cf6
eef19482dea315b11852d2bae25628728884162488a3797780fa21721bf3358ca6de71685bf58c900983ad7c94dcefbd14f1317035ef08ef8e5128bbe27bfd2c
1e7e75f62a07f7b1bbcb463bf6330e445c12dbc36bfd1b6ae75adc0303e81669beac70612beb6e175fbb6ccbaa4bb091e23b0d90c7c299fe6e2969c0b1ba3f40
$CDNENCFINISH
.ends TPS43061_TOPLEVEL_S12
*$
.subckt TPS43061_TOPLEVEL_S3 1 2 3 4
$CDNENCSTART
eee8c5c7a2bc4b01f045f303678664e7916da0bae22e8cb0bba041dd67c69ce448ea70148a9ac1670c8926c1ac5057c8ccfcd77bf87ca9dc5a97c8100a7f5192
49437a5c2c000e5531820e631d1d1d7451c16968e1146dc5ed857e222a29377b14aee5f82b16b7673d4db86b42817e2b94029deb845b63dbfa609432f74b4cf3
196545b3a77859896f31076d2b37e96baa35006d782c6ce9ddf7ad811d6a72c40790ffaf43e25844402a22a00a175fe32fb8e6d82984fc1f68b06386d7b2f79a
1e7e75f62a07f7b1bbcb463bf6330e449fca2d09a1602b870ffb76e2ddf4497b2b7447af30eda7a9fe99c2387d62d51db4a02f072722f4b52cf859073b56ae0f
$CDNENCFINISH
.ends TPS43061_TOPLEVEL_S3
*$
.subckt TPS43061_TOPLEVEL_S6 1 2 3 4
$CDNENCSTART
eee8c5c7a2bc4b01f045f303678664e7916da0bae22e8cb0bba041dd67c69ce448ea70148a9ac1670c8926c1ac5057c8ccfcd77bf87ca9dc5a97c8100a7f5192
984f32a07473fb7c31820e631d1d1d74ef1e214e65ee9ca6ed857e222a29377b14aee5f82b16b7673d4db86b42817e2b94029deb845b63dbfa609432f74b4cf3
dd1eb1f7fd6960a06f31076d2b37e96baa35006d782c6ce9ddf7ad811d6a72c40790ffaf43e25844402a22a00a175fe32fb8e6d82984fc1f68b06386d7b2f79a
1e7e75f62a07f7b1bbcb463bf6330e44dd4a5f3ed5996b330ffb76e2ddf4497be9ba6df74be059f8e421b088f586f07d1af09922ee8b758c1170ec9fe77f9354
$CDNENCFINISH
.ends TPS43061_TOPLEVEL_S6
*$
.subckt TPS43061_TOPLEVEL_S7 1 2 3 4
$CDNENCSTART
eee8c5c7a2bc4b01f045f303678664e7916da0bae22e8cb0bba041dd67c69ce448ea70148a9ac1670c8926c1ac5057c8ccfcd77bf87ca9dc5a97c8100a7f5192
ca116cfd9f503f5a31820e631d1d1d74bc43870b2068c893ed857e222a29377b14aee5f82b16b7673d4db86b42817e2b94029deb845b63dbfa609432f74b4cf3
22fa704315324fee6f31076d2b37e96baa35006d782c6ce9ddf7ad811d6a72c40790ffaf43e25844402a22a00a175fe32fb8e6d82984fc1f68b06386d7b2f79a
1e7e75f62a07f7b1bbcb463bf6330e44b8257e7c370c44b80ffb76e2ddf4497b2b7447af30eda7a94581845dadf41c9e1af09922ee8b758c1170ec9fe77f9354
$CDNENCFINISH
.ends TPS43061_TOPLEVEL_S7
*$
.subckt TPS43061_TOPLEVEL_S1 1 2 3 4
$CDNENCSTART
eee8c5c7a2bc4b01f045f303678664e7916da0bae22e8cb0bba041dd67c69ce448ea70148a9ac1670c8926c1ac5057c8ccfcd77bf87ca9dc5a97c8100a7f5192
44f117741689d59131820e631d1d1d749e35700c7913e939ed857e222a29377b14aee5f82b16b7673d4db86b42817e2b94029deb845b63dbfa609432f74b4cf3